Version 4
SHEET 1 1028 680
WIRE 448 112 368 112
WIRE 560 112 448 112
WIRE 848 112 640 112
WIRE 192 128 -176 128
WIRE 272 128 192 128
WIRE 448 144 368 144
WIRE 656 144 448 144
WIRE 848 144 736 144
WIRE 192 160 -64 160
WIRE 272 160 192 160
WIRE 448 176 368 176
WIRE 752 176 448 176
WIRE 848 176 832 176
WIRE 0 192 -32 192
WIRE 192 192 80 192
WIRE 272 192 192 192
WIRE 432 208 368 208
WIRE 560 208 432 208
WIRE 560 224 560 208
WIRE 320 240 320 224
WIRE 224 432 96 432
WIRE 288 432 224 432
WIRE 496 432 384 432
WIRE 96 464 96 432
WIRE 496 480 496 432
FLAG 560 304 0
FLAG 320 240 0
FLAG 848 112 0
FLAG 848 144 0
FLAG 848 176 0
FLAG -256 128 0
FLAG 96 544 0
FLAG 336 464 0
FLAG 496 560 0
FLAG -32 192 0
FLAG -144 160 0
FLAG 192 128 Splitter_S17
FLAG 192 160 Splitter_S37
FLAG 192 192 Splitter_S57
FLAG 448 112 Splitter_S27
FLAG 448 144 Splitter_S47
FLAG 448 176 Splitter_S67
FLAG 432 208 V1
FLAG 224 432 V2
SYMBOL voltage 560 208 R0
WINDOW 123 24 124 Left 2
WINDOW 39 24 152 Left 2
SYMATTR Value2 AC 2
SYMATTR SpiceLine Rser=50
SYMATTR InstName V1
SYMATTR Value ""
SYMBOL res -48 144 R90
WINDOW 0 0 56 VBottom 2
WINDOW 3 32 56 VTop 2
SYMATTR InstName R1
SYMATTR Value 50
SYMBOL res 96 176 R90
WINDOW 0 0 56 VBottom 2
WINDOW 3 32 56 VTop 2
SYMATTR InstName R2
SYMATTR Value 50
SYMBOL res 656 96 R90
WINDOW 0 0 56 VBottom 2
WINDOW 3 32 56 VTop 2
SYMATTR InstName R3
SYMATTR Value 50
SYMBOL res 752 128 R90
WINDOW 0 0 56 VBottom 2
WINDOW 3 32 56 VTop 2
SYMATTR InstName R4
SYMATTR Value 50
SYMBOL res 848 160 R90
WINDOW 0 0 56 VBottom 2
WINDOW 3 32 56 VTop 2
SYMATTR InstName R5
SYMATTR Value 50
SYMBOL res -160 112 R90
WINDOW 0 0 56 VBottom 2
WINDOW 3 32 56 VTop 2
SYMATTR InstName R6
SYMATTR Value 50
SYMBOL voltage 96 448 R0
WINDOW 123 24 124 Left 2
WINDOW 39 24 152 Left 2
SYMATTR Value2 AC 2
SYMATTR SpiceLine Rser=50
SYMATTR InstName V2
SYMATTR Value ""
SYMBOL res 480 464 R0
SYMATTR InstName R7
SYMATTR Value 50
SYMBOL AD6PS-1+___+25 320 128 R0
SYMATTR InstName U3
SYMBOL AMP-75+_Unit2 336 432 R0
SYMATTR InstName U1
TEXT 48 304 Left 2 !.ac lin 2000 0.5e6 1000e6
TEXT 600 432 Left 2 !.net I(R7) V2\n.net I(R1) V1
